<?xml version="1.0" ?>
<routes>
  <vtype id="car" accel="2.6" decel="4.5" sigma="0.5" length="5.0" minGap="2.5" maxSpeed="50.0" color="1,1,0"/>
  <vehicle id="vehicle_1" type="car" depart="0.0" departPos="0" departSpeed="41.07">
    <route edges="e1"/>
    <stop lane="e1_0" endPos="403.33" duration="0" until="1.0"/>
    <stop lane="e1_0" endPos="444.4" duration="0" until="2.0"/>
    <stop lane="e1_0" endPos="485.47" duration="0" until="3.0"/>
    <stop lane="e1_0" endPos="526.54" duration="0" until="4.0"/>
    <stop lane="e1_0" endPos="567.61" duration="0" until="5.0"/>
    <stop lane="e1_0" endPos="608.68" duration="0" until="6.0"/>
    <stop lane="e1_0" endPos="649.75" duration="0" until="7.0"/>
    <stop lane="e1_0" endPos="690.82" duration="0" until="8.0"/>
    <stop lane="e1_0" endPos="731.89" duration="0" until="9.0"/>
    <stop lane="e1_0" endPos="772.96" duration="0" until="10.0"/>
  </vehicle>
  <vehicle id="vehicle_2" type="car" depart="0.0" departPos="0" departSpeed="-32.48">
    <route edges="e1"/>
    <stop lane="e1_0" endPos="130.27" duration="0" until="1.0"/>
    <stop lane="e1_0" endPos="97.79" duration="0" until="2.0"/>
    <stop lane="e1_0" endPos="65.31" duration="0" until="3.0"/>
    <stop lane="e1_0" endPos="32.83" duration="0" until="4.0"/>
    <stop lane="e1_0" endPos="10.35" duration="0" until="5.0"/>
    <stop lane="e1_0" endPos="-7.13" duration="0" until="6.0"/>
    <stop lane="e1_0" endPos="-19.61" duration="0" until="7.0"/>
    <stop lane="e1_0" endPos="-32.09" duration="0" until="8.0"/>
    <stop lane="e1_0" endPos="-44.57" duration="0" until="9.0"/>
    <stop lane="e1_0" endPos="-57.05" duration="0" until="10.0"/>
  </vehicle>
  <vehicle id="vehicle_3" type="car" depart="0.0" departPos="0" departSpeed="36.13">
    <route edges="e1"/>
    <stop lane="e1_0" endPos="218.21" duration="0" until="1.0"/>
    <stop lane="e1_0" endPos="254.34" duration="0" until="2.0"/>
    <stop lane="e1_0" endPos="290.47" duration="0" until="3.0"/>
    <stop lane="e1_0" endPos="326.6" duration="0" until="4.0"/>
    <stop lane="e1_0" endPos="362.73" duration="0" until="5.0"/>
    <stop lane="e1_0" endPos="398.86" duration="0" until="6.0"/>
    <stop lane="e1_0" endPos="434.99" duration="0" until="7.0"/>
    <stop lane="e1_0" endPos="471.12" duration="0" until="8.0"/>
    <stop lane="e1_0" endPos="507.25" duration="0" until="9.0"/>
    <stop lane="e1_0" endPos="543.38" duration="0" until="10.0"/>
  </vehicle>
  <vehicle id="vehicle_4" type="car" depart="0.0" departPos="0" departSpeed="-42.76">
    <route edges="e1"/>
    <stop lane="e1_0" endPos="224.58" duration="0" until="1.0"/>
    <stop lane="e1_0" endPos="181.82" duration="0" until="2.0"/>
    <stop lane="e1_0" endPos="139.06" duration="0" until="3.0"/>
    <stop lane="e1_0" endPos="96.3" duration="0" until="4.0"/>
    <stop lane="e1_0" endPos="53.54" duration="0" until="5.0"/>
    <stop lane="e1_0" endPos="10.78" duration="0" until="6.0"/>
    <stop lane="e1_0" endPos="-31.98" duration="0" until="7.0"/>
    <stop lane="e1_0" endPos="-74.74" duration="0" until="8.0"/>
    <stop lane="e1_0" endPos="-117.5" duration="0" until="9.0"/>
    <stop lane="e1_0" endPos="-160.26" duration="0" until="10.0"/>
  </vehicle>
  <vehicle id="vehicle_5" type="car" depart="0.0" departPos="0" departSpeed="-43.4">
    <route edges="e1"/>
    <stop lane="e1_0" endPos="266.0" duration="0" until="1.0"/>
    <stop lane="e1_0" endPos="222.6" duration="0" until="2.0"/>
    <stop lane="e1_0" endPos="179.2" duration="0" until="3.0"/>
    <stop lane="e1_0" endPos="135.8" duration="0" until="4.0"/>
    <stop lane="e1_0" endPos="92.4" duration="0" until="5.0"/>
    <stop lane="e1_0" endPos="49.0" duration="0" until="6.0"/>
    <stop lane="e1_0" endPos="5.6" duration="0" until="7.0"/>
    <stop lane="e1_0" endPos="-37.8" duration="0" until="8.0"/>
    <stop lane="e1_0" endPos="-81.2" duration="0" until="9.0"/>
    <stop lane="e1_0" endPos="-124.6" duration="0" until="10.0"/>
  </vehicle>
  <vehicle id="vehicle_7" type="car" depart="0.0" departPos="0" departSpeed="25.0">
    <route edges="e1"/>
    <stop lane="e1_0" endPos="425.0" duration="0" until="1.0"/>
    <stop lane="e1_0" endPos="450.0" duration="0" until="2.0"/>
    <stop lane="e1_0" endPos="475.0" duration="0" until="3.0"/>
    <stop lane="e1_0" endPos="500.0" duration="0" until="4.0"/>
    <stop lane="e1_0" endPos="525.0" duration="0" until="5.0"/>
    <stop lane="e1_0" endPos="550.0" duration="0" until="6.0"/>
    <stop lane="e1_0" endPos="575.0" duration="0" until="7.0"/>
    <stop lane="e1_0" endPos="600.0" duration="0" until="8.0"/>
    <stop lane="e1_0" endPos="625.0" duration="0" until="9.0"/>
    <stop lane="e1_0" endPos="650.0" duration="0" until="10.0"/>
  </vehicle>
  <vehicle id="vehicle_8" type="car" depart="0.0" departPos="0" departSpeed="40.0">
    <route edges="e1"/>
    <stop lane="e1_0" endPos="420.0" duration="0" until="1.0"/>
    <stop lane="e1_0" endPos="460.0" duration="0" until="2.0"/>
    <stop lane="e1_0" endPos="500.0" duration="0" until="3.0"/>
    <stop lane="e1_0" endPos="540.0" duration="0" until="4.0"/>
    <stop lane="e1_0" endPos="580.0" duration="0" until="5.0"/>
    <stop lane="e1_0" endPos="620.0" duration="0" until="6.0"/>
    <stop lane="e1_0" endPos="660.0" duration="0" until="7.0"/>
    <stop lane="e1_0" endPos="700.0" duration="0" until="8.0"/>
    <stop lane="e1_0" endPos="740.0" duration="0" until="9.0"/>
    <stop lane="e1_0" endPos="780.0" duration="0" until="10.0"/>
  </vehicle>
  <vehicle id="vehicle_9" type="car" depart="0.0" departPos="0" departSpeed="-40.0">
    <route edges="e1"/>
    <stop lane="e1_0" endPos="160.0" duration="0" until="1.0"/>
    <stop lane="e1_0" endPos="120.0" duration="0" until="2.0"/>
    <stop lane="e1_0" endPos="80.0" duration="0" until="3.0"/>
    <stop lane="e1_0" endPos="40.0" duration="0" until="4.0"/>
    <stop lane="e1_0" endPos="0.0" duration="0" until="5.0"/>
    <stop lane="e1_0" endPos="-40.0" duration="0" until="6.0"/>
    <stop lane="e1_0" endPos="-80.0" duration="0" until="7.0"/>
    <stop lane="e1_0" endPos="-120.0" duration="0" until="8.0"/>
    <stop lane="e1_0" endPos="-160.0" duration="0" until="9.0"/>
    <stop lane="e1_0" endPos="-200.0" duration="0" until="10.0"/>
  </vehicle>
  <vehicle id="vehicle_10" type="car" depart="0.0" departPos="0" departSpeed="-30.0">
    <route edges="e1"/>
    <stop lane="e1_0" endPos="70.0" duration="0" until="1.0"/>
    <stop lane="e1_0" endPos="40.0" duration="0" until="2.0"/>
    <stop lane="e1_0" endPos="10.0" duration="0" until="3.0"/>
    <stop lane="e1_0" endPos="-15.0" duration="0" until="4.0"/>
    <stop lane="e1_0" endPos="-35.0" duration="0" until="5.0"/>
    <stop lane="e1_0" endPos="-50.0" duration="0" until="6.0"/>
    <stop lane="e1_0" endPos="-60.0" duration="0" until="7.0"/>
    <stop lane="e1_0" endPos="-65.0" duration="0" until="8.0"/>
    <stop lane="e1_0" endPos="-67.0" duration="0" until="9.0"/>
    <stop lane="e1_0" endPos="-68.0" duration="0" until="10.0"/>
  </vehicle>
  <vehicle id="vehicle_11" type="car" depart="0.0" departPos="0" departSpeed="38.0">
    <route edges="e1"/>
    <stop lane="e1_0" endPos="488.0" duration="0" until="1.0"/>
    <stop lane="e1_0" endPos="526.0" duration="0" until="2.0"/>
    <stop lane="e1_0" endPos="564.0" duration="0" until="3.0"/>
    <stop lane="e1_0" endPos="602.0" duration="0" until="4.0"/>
    <stop lane="e1_0" endPos="640.0" duration="0" until="5.0"/>
    <stop lane="e1_0" endPos="678.0" duration="0" until="6.0"/>
    <stop lane="e1_0" endPos="716.0" duration="0" until="7.0"/>
    <stop lane="e1_0" endPos="754.0" duration="0" until="8.0"/>
    <stop lane="e1_0" endPos="792.0" duration="0" until="9.0"/>
    <stop lane="e1_0" endPos="830.0" duration="0" until="10.0"/>
  </vehicle>
  <vehicle id="vehicle_12" type="car" depart="0.0" departPos="0" departSpeed="-35.0">
    <route edges="e1"/>
    <stop lane="e1_0" endPos="185.0" duration="0" until="1.0"/>
    <stop lane="e1_0" endPos="150.0" duration="0" until="2.0"/>
    <stop lane="e1_0" endPos="115.0" duration="0" until="3.0"/>
    <stop lane="e1_0" endPos="80.0" duration="0" until="4.0"/>
    <stop lane="e1_0" endPos="45.0" duration="0" until="5.0"/>
  </vehicle>
</routes>
