<?xml version="1.0" ?>
<configuration>
  <input>
    <net-file value="gpt4_scenario.net.xml"/>
    <route-files value="gpt4_scenario.rou.xml"/>
  </input>
  <time>
    <begin value="0"/>
    <end value="100"/>
  </time>
</configuration>
