<?xml version="1.0" ?>
<net xmlns="http://sumo.dlr.de/xsd/net_file.xsd" version="1.9" junctionCornerDetail="5" limitTurnSpeed="5.5">
  <location netOffset="0.00,0.00" convBoundary="-300.0,-40.8,930.0,75.0" origBoundary="-300.0,-40.8,930.0,75.0" projParameter="!"/>
  <edge id="e1" from="j1" to="j2" priority="1" numLanes="4" speed="50.00">
    <lane index="0" speed="50.00" length="1230.0" shape="-300.0,-35.8 930.0,-35.8"/>
    <lane index="1" speed="50.00" length="1230.0" shape="-300.0,-30.799999999999997 930.0,-30.799999999999997"/>
    <lane index="2" speed="50.00" length="1230.0" shape="-300.0,-25.799999999999997 930.0,-25.799999999999997"/>
    <lane index="3" speed="50.00" length="1230.0" shape="-300.0,-20.799999999999997 930.0,-20.799999999999997"/>
  </edge>
</net>
